<?xml version="1.0" encoding="UTF-8"?>

<!-- generated on Tue 20 Oct 2015 02:21:35 PM CEST by Netedit Version dev-SVN-r19105I
This data file and the accompanying materials
are made available under the terms of the Eclipse Public License v2.0
which accompanies this distribution, and is available at
http://www.eclipse.org/legal/epl-v20.html
SPDX-License-Identifier: EPL-2.0
<configuration xmlns:xsi="http://www.w3.org/2001/XMLSchema-instance" xsi:noNamespaceSchemaLocation="http://sumo.dlr.de/xsd/netedit.exeConfiguration.xsd">

    <input>
        <sumo-net-file value="net.net.xml"/>
    </input>

    <output>
        <output-file value="net.net.xml"/>
    </output>

    <processing>
        <no-internal-links value="true"/>
        <no-turnarounds value="true"/>
        <offset.disable-normalization value="true"/>
    </processing>

</configuration>
-->

<net version="0.13" xmlns:xsi="http://www.w3.org/2001/XMLSchema-instance" xsi:noNamespaceSchemaLocation="http://sumo.dlr.de/xsd/net_file.xsd">

    <location netOffset="0.00,0.00" convBoundary="0.00,0.00,1500.0,0.00" origBoundary="-10000000000.00,-10000000000.00,10000000000.00,10000000000.00" projParameter="!"/>

    <edge id="beg1" from="gneJ0" to="gneJ1" priority="1">
	    <lane id="beg_0" index="0" speed="13.89" length="1000.0" shape="0.00,-4.95 1000.0,-4.95"/>
	    <neigh lane="end_1" />
    </edge>
    <edge id="end1" from="gneJ1" to="gneJ2" priority="1">
	    <lane id="end_0" index="0" speed="13.89" length="500.0" shape="1000.0,-4.95 1500.0,-4.95"/>
	    <neigh lane="beg_1" />
    </edge>

    <edge id="end2" from="gneJ0" to="gneJ1" priority="1">
	    <lane id="end_1" index="0" speed="13.89" length="1000.0" shape="1000.0,-1.65 0.00,-1.65"/>
	    <neigh lane="beg_0" />
    </edge>
    <edge id="beg2" from="gneJ1" to="gneJ2" priority="1">
	    <lane id="beg_1" index="0" speed="13.89" length="500.0" shape="1500.0,-1.65 1000.0,-1.65"/>
	    <neigh lane="end_0" />
    </edge>



    <junction id="gneJ0" type="unregulated" x="0.00" y="0.00" incLanes="" intLanes="" shape="-0.00,-0.05 -0.00,-6.55"/>
    <junction id="gneJ1" type="unregulated" x="1000.0" y="0.00" incLanes="beg_0 beg_1" intLanes="" shape="1000.0,-0.05 1000.0,-6.55 1000.0,-0.05">
    </junction>
    <junction id="gneJ2" type="unregulated" x="1500.0" y="0.00" incLanes="end_0 end_1" intLanes="" shape="1500.0,-6.55 1500.0,-0.05"/>

    <connection from="beg1" to="end1" fromLane="0" toLane="0" linkIndex="0" dir="s" state="o"/>
    <connection from="beg2" to="end2" fromLane="0" toLane="0" linkIndex="0" dir="s" state="o"/>



</net>
